[General]
network = example1
sim-time-limit = 10s

**.crcMode = "computed"
**.fcsMode = "computed"

**.fileFormat = "pcap"
**.numPcapRecorders = 1
**.tcp.advertisedWindow = 65535
**.tcp.sendDataWithFirstAck = false
**.tcp.alignOptions = false
**.tcp.sendMssOption = false
**.ip.timeToLive = 64

*.configurator.config = xml("<config><interface hosts='source' address='10.1.1.1' netmask='255.255.255.0'/><interface hosts='sink' address='10.1.1.2' netmask='255.255.255.0'/></config>")

*.source.numApps = 1
*.source.app[0].typename = "TcpSessionApp"
*.source.app[0].sendBytes = 1MB
*.source.app[0].tOpen = 0s
*.source.app[0].tSend = 0s
*.source.app[0].tClose = 0s
*.source.app[0].connectAddress = "sink"
*.source.app[0].localPort = 49153
*.source.app[0].connectPort = 1000

*.sink.numApps = 1
*.sink.app[0].typename = "TcpServerApp"
*.sink.app[0].listener.localPort = 1000
*.sink.app[0].connection[*].source.typename = "EmptyPacketSource"
